92
Lattice="13.042342580993648 0.0 0.0 0.0 7.530000000000001 0.0 0.0 0.0 26.17805" Properties=species:S:1:pos:R:3 pbc="T T T"
Co      0.76948235       1.25422170      18.07364700 
Co      0.76947729       3.76574027      18.07365284 
Co      0.77166078       6.27508414      18.07332502 
Co      2.90483914      -0.00203903      18.10613578 
Co      2.89479783       2.50999412      18.10631820 
Co      2.90490637       5.02204096      18.10599907 
Co      5.02606779       1.25408496      18.08565602 
Co      5.02614156       3.76593720      18.08569926 
Co      5.05231985       6.27500162      18.07387231 
Co     -0.04171207      -0.00043907      16.15706009 
Co     -0.04201584       2.51000661      16.15579114 
Co     -0.04168776       5.02045846      16.15705784 
Co      2.16018573       1.25449611      16.13123397 
Co      2.16016820       3.76549295      16.13127347 
Co      2.15987010       6.27500919      16.13093971 
Co      4.34005155      -0.00129900      16.12640826 
Co      4.33867678       2.51001704      16.12955264 
Co      4.34005363       5.02129795      16.12643863 
Co      6.52994761       1.25094847      16.17257441 
Co      6.52994709       3.76906359      16.17259415 
Co      6.54278708       6.27501104      16.17173576 
Co      8.68606946      -0.00723587      16.09814684 
Co      8.69838135       2.50997682      16.21157816 
Co      8.68604488       5.02725023      16.09812233 
Co     10.87062257       1.24789689      16.10681574 
Co     10.87060760       3.77211417      16.10678934 
Co     10.86469545       6.27500881      16.11752249 
Co      0.72457459       1.25500000      14.10683000 
Co      0.72457459       3.76500000      14.10683000 
Co      0.72457459       6.27500000      14.10683000 
Co      2.89829835      -0.00000000      14.10683000 
Co      2.89829835       2.51000000      14.10683000 
Co      2.89829835       5.02000000      14.10683000 
Co      5.07202211       1.25500000      14.10683000 
Co      5.07202211       3.76500000      14.10683000 
Co      5.07202211       6.27500000      14.10683000 
Co      7.23163147      -0.00063948      14.11781547 
Co      7.24549827       2.50998589      14.12467602 
Co      7.23164333       5.02065384      14.11785477 
Co      9.40506122       1.26198810      14.12685842 
Co      9.40506385       3.75797401      14.12689269 
Co      9.40962693       6.27499732      14.12819050 
Co     11.58238176       0.00073028      14.12082179 
Co     11.58720861       2.51000670      14.11343295 
Co     11.58235809       5.01927338      14.12082870 
Co      0.00000000       0.00000000      12.07122000 
Co      0.00000000       2.51000000      12.07122000 
Co      0.00000000       5.02000000      12.07122000 
Co      2.17372376       1.25500000      12.07122000 
Co      2.17372376       3.76500000      12.07122000 
Co      2.17372376       6.27500000      12.07122000 
Co      4.34744753      -0.00000000      12.07122000 
Co      4.34744753       2.51000000      12.07122000 
Co      4.34744753       5.02000000      12.07122000 
Co      6.52117129       1.25500000      12.07122000 
Co      6.52117129       3.76500000      12.07122000 
Co      6.52117129       6.27500000      12.07122000 
Co      8.69489505      -0.00000000      12.07122000 
Co      8.69489505       2.51000000      12.07122000 
Co      8.69489505       5.02000000      12.07122000 
Co     10.86861882       1.25500000      12.07122000 
Co     10.86861882       3.76500000      12.07122000 
Co     10.86861882       6.27500000      12.07122000 
Co      0.72457459       1.25500000      10.03561000 
Co      0.72457459       3.76500000      10.03561000 
Co      0.72457459       6.27500000      10.03561000 
Co      2.89829835      -0.00000000      10.03561000 
Co      2.89829835       2.51000000      10.03561000 
Co      2.89829835       5.02000000      10.03561000 
Co      5.07202211       1.25500000      10.03561000 
Co      5.07202211       3.76500000      10.03561000 
Co      5.07202211       6.27500000      10.03561000 
Co      7.24574588      -0.00000000      10.03561000 
Co      7.24574588       2.51000000      10.03561000 
Co      7.24574588       5.02000000      10.03561000 
Co      9.41946964       1.25500000      10.03561000 
Co      9.41946964       3.76500000      10.03561000 
Co      9.41946964       6.27500000      10.03561000 
Co     11.59319341      -0.00000000      10.03561000 
Co     11.59319341       2.51000000      10.03561000 
Co     11.59319341       5.02000000      10.03561000 
Co      6.52117129       1.25500000       8.00000000 
Co      6.52117129       3.76500000       8.00000000 
Co      6.52117129       6.27500000       8.00000000 
Co      8.69489505      -0.00000000       8.00000000 
Co      8.69489505       2.51000000       8.00000000 
Co      8.69489505       5.02000000       8.00000000 
Co     10.86861882       1.25500000       8.00000000 
Co     10.86861882       3.76500000       8.00000000 
Co     10.86861882       6.27500000       8.00000000 
C      8.76978373       2.50986384      17.97418124 
O      8.79995816       2.50988599      19.13297561 
