92
Lattice="13.042342580993648 0.0 0.0 0.0 7.530000000000001 0.0 0.0 0.0 26.17805" Properties=species:S:1:pos:R:3 pbc="T T T"
Co      0.78000375       1.25008065      18.06413685 
Co      0.76005494       3.76498327      18.05446223 
Co      0.77990663       6.27990128      18.06467138 
Co      2.90727152       0.00003786      18.08973201 
Co      2.91194079       2.50959869      18.17985641 
Co      2.91196019       5.02050351      18.17987216 
Co      5.04690949       1.24823980      18.06834351 
Co      5.06470084       3.76498717      18.06943379 
Co      5.04702298       6.28180834      18.06823683 
Co     -0.04192067       0.00001912      16.15659233 
Co     -0.04747094       2.50878268      16.14986513 
Co     -0.04747347       5.02119118      16.14972172 
Co      2.16454577       1.26371093      16.12493543 
Co      2.16601921       3.76504037      16.14049531 
Co      2.16453237       6.26629783      16.12490974 
Co      4.34253796       0.00000673      16.12005999 
Co      4.34117310       2.51044864      16.12680732 
Co      4.34113896       5.01955919      16.12678731 
Co      6.54629128       1.25410658      16.17441535 
Co      6.54768556       3.76499373      16.19443510 
Co      6.54629161       6.27588369      16.17441606 
Co      8.69014189      -0.00002644      16.11188328 
Co      8.69082386       2.51037993      16.11141936 
Co      8.69081426       5.01961091      16.11142003 
Co     10.86126080       1.25485529      16.11762355 
Co     10.86089177       3.76502110      16.12055317 
Co     10.86127689       6.27515617      16.11761127 
Co      0.72457459       1.25500000      14.10683000 
Co      0.72457459       3.76500000      14.10683000 
Co      0.72457459       6.27500000      14.10683000 
Co      2.89829835      -0.00000000      14.10683000 
Co      2.89829835       2.51000000      14.10683000 
Co      2.89829835       5.02000000      14.10683000 
Co      5.07202211       1.25500000      14.10683000 
Co      5.07202211       3.76500000      14.10683000 
Co      5.07202211       6.27500000      14.10683000 
Co      7.23266575       0.00003458      14.12270543 
Co      7.23272540       2.51150797      14.12379775 
Co      7.23270879       5.01848086      14.12377440 
Co      9.40961919       1.25457197      14.12693694 
Co      9.41009195       3.76497885      14.12739574 
Co      9.40960404       6.27542151      14.12690988 
Co     11.58557287       0.00001198      14.11783025 
Co     11.58351759       2.51003130      14.11853648 
Co     11.58352667       5.01997142      14.11851008 
Co      0.00000000       0.00000000      12.07122000 
Co      0.00000000       2.51000000      12.07122000 
Co      0.00000000       5.02000000      12.07122000 
Co      2.17372376       1.25500000      12.07122000 
Co      2.17372376       3.76500000      12.07122000 
Co      2.17372376       6.27500000      12.07122000 
Co      4.34744753      -0.00000000      12.07122000 
Co      4.34744753       2.51000000      12.07122000 
Co      4.34744753       5.02000000      12.07122000 
Co      6.52117129       1.25500000      12.07122000 
Co      6.52117129       3.76500000      12.07122000 
Co      6.52117129       6.27500000      12.07122000 
Co      8.69489505      -0.00000000      12.07122000 
Co      8.69489505       2.51000000      12.07122000 
Co      8.69489505       5.02000000      12.07122000 
Co     10.86861882       1.25500000      12.07122000 
Co     10.86861882       3.76500000      12.07122000 
Co     10.86861882       6.27500000      12.07122000 
Co      0.72457459       1.25500000      10.03561000 
Co      0.72457459       3.76500000      10.03561000 
Co      0.72457459       6.27500000      10.03561000 
Co      2.89829835      -0.00000000      10.03561000 
Co      2.89829835       2.51000000      10.03561000 
Co      2.89829835       5.02000000      10.03561000 
Co      5.07202211       1.25500000      10.03561000 
Co      5.07202211       3.76500000      10.03561000 
Co      5.07202211       6.27500000      10.03561000 
Co      7.24574588      -0.00000000      10.03561000 
Co      7.24574588       2.51000000      10.03561000 
Co      7.24574588       5.02000000      10.03561000 
Co      9.41946964       1.25500000      10.03561000 
Co      9.41946964       3.76500000      10.03561000 
Co      9.41946964       6.27500000      10.03561000 
Co     11.59319341      -0.00000000      10.03561000 
Co     11.59319341       2.51000000      10.03561000 
Co     11.59319341       5.02000000      10.03561000 
Co      6.52117129       1.25500000       8.00000000 
Co      6.52117129       3.76500000       8.00000000 
Co      6.52117129       6.27500000       8.00000000 
Co      8.69489505      -0.00000000       8.00000000 
Co      8.69489505       2.51000000       8.00000000 
Co      8.69489505       5.02000000       8.00000000 
Co     10.86861882       1.25500000       8.00000000 
Co     10.86861882       3.76500000       8.00000000 
Co     10.86861882       6.27500000       8.00000000 
C      2.93879065       3.76513040      19.63571850 
O      2.93283627       3.76509149      20.81447016 
