47
Lattice="6.145316265254376 0.0 0.0 0.0 7.5264445789496115 0.0 0.0 0.0 26.1392545419605" Properties=species:S:1:pos:R:3 pbc="T T T"
Co      4.06729469       1.28422115      18.09716002 
Co      4.06746043       3.73349611      18.09710603 
Co      4.06740439       6.27192616      18.02361776 
Co      2.06209528      -0.00056747      17.36045314 
Co      2.03858871       2.50884785      17.35770453 
Co      2.06215082       5.01808178      17.36039308 
Co      0.00131313       1.24550222      16.73273676 
Co      0.00136430       3.77215815      16.73272596 
Co      0.00101634       6.27200374      16.74237208 
Co      4.10943705      -0.00265554      15.96215279 
Co      4.10163578       2.50885954      15.96651298 
Co      4.10942646       5.02017925      15.96225269 
Co      2.05925120       1.25378251      15.24724754 
Co      2.05922735       3.76384760      15.24729552 
Co      2.05691060       6.27200608      15.24196435 
Co      0.00782199       0.00232055      14.54710307 
Co      0.00376543       2.50881036      14.54607891 
Co      0.00786014       5.01528884      14.54713129 
Co      4.09687751       1.25440743      13.79385974 
Co      4.09687751       3.76322229      13.79385974 
Co      4.09687751       6.27203715      13.79385974 
Co      2.04843876       0.00000000      13.06962727 
Co      2.04843876       2.50881486      13.06962727 
Co      2.04843876       5.01762972      13.06962727 
Co      0.00000000       1.25440743      12.34539480 
Co      0.00000000       3.76322229      12.34539480 
Co      0.00000000       6.27203715      12.34539480 
Co      4.09687751       0.00000000      11.62116234 
Co      4.09687751       2.50881486      11.62116234 
Co      4.09687751       5.01762972      11.62116234 
Co      2.04843876       1.25440743      10.89692987 
Co      2.04843876       3.76322229      10.89692987 
Co      2.04843876       6.27203715      10.89692987 
Co      0.00000000       0.00000000      10.17269740 
Co      0.00000000       2.50881486      10.17269740 
Co      0.00000000       5.01762972      10.17269740 
Co      4.09687751       1.25440743       9.44846493 
Co      4.09687751       3.76322229       9.44846493 
Co      4.09687751       6.27203715       9.44846493 
Co      2.04843876       0.00000000       8.72423247 
Co      2.04843876       2.50881486       8.72423247 
Co      2.04843876       5.01762972       8.72423247 
Co      0.00000000       1.25440743       8.00000000 
Co      0.00000000       3.76322229       8.00000000 
Co      0.00000000       6.27203715       8.00000000 
C      4.42258292       2.50816069      19.54155843 
O      4.69995066       2.50893987      20.67848211 
