47
Lattice="6.145316265254376 0.0 0.0 0.0 7.5264445789496115 0.0 0.0 0.0 26.1392545419605" Properties=species:S:1:pos:R:3 pbc="T T T"
Co      4.03138025       1.25443956      18.06502489 
Co      4.10919379       3.78245258      18.02977437 
Co      4.10919971       6.25273995      18.02971192 
Co      2.02921802      -0.00452086      17.42449704 
Co      2.02918182       2.51326546      17.42449913 
Co      2.07263613       5.01768750      17.34761343 
Co     -0.01679535       1.25434760      16.72603860 
Co      0.00766322       3.76410020      16.72224660 
Co      0.00771793       6.27123708      16.72211631 
Co      4.09375954      -0.00393093      15.97283057 
Co      4.09374839       2.51266202      15.97275666 
Co      4.10548292       5.01770681      15.94890429 
Co      2.04179622       1.25437143      15.26138811 
Co      2.05191701       3.75889090      15.23874305 
Co      2.05193164       6.27646040      15.23875368 
Co     -0.00177423       0.00201770      14.53998458 
Co     -0.00189876       2.50673937      14.53999338 
Co      0.00666448       5.01767529      14.53388374 
Co      4.09687751       1.25440743      13.79385974 
Co      4.09687751       3.76322229      13.79385974 
Co      4.09687751       6.27203715      13.79385974 
Co      2.04843876       0.00000000      13.06962727 
Co      2.04843876       2.50881486      13.06962727 
Co      2.04843876       5.01762972      13.06962727 
Co      0.00000000       1.25440743      12.34539480 
Co      0.00000000       3.76322229      12.34539480 
Co      0.00000000       6.27203715      12.34539480 
Co      4.09687751       0.00000000      11.62116234 
Co      4.09687751       2.50881486      11.62116234 
Co      4.09687751       5.01762972      11.62116234 
Co      2.04843876       1.25440743      10.89692987 
Co      2.04843876       3.76322229      10.89692987 
Co      2.04843876       6.27203715      10.89692987 
Co      0.00000000       0.00000000      10.17269740 
Co      0.00000000       2.50881486      10.17269740 
Co      0.00000000       5.01762972      10.17269740 
Co      4.09687751       1.25440743       9.44846493 
Co      4.09687751       3.76322229       9.44846493 
Co      4.09687751       6.27203715       9.44846493 
Co      2.04843876       0.00000000       8.72423247 
Co      2.04843876       2.50881486       8.72423247 
Co      2.04843876       5.01762972       8.72423247 
Co      0.00000000       1.25440743       8.00000000 
Co      0.00000000       3.76322229       8.00000000 
Co      0.00000000       6.27203715       8.00000000 
C      2.30014356       1.25434589      18.98463577 
O      1.87978203       1.25443931      20.09274845 
