47
Lattice="6.145316265254376 0.0 0.0 0.0 7.5264445789496115 0.0 0.0 0.0 26.1392545419605" Properties=species:S:1:pos:R:3 pbc="T T T"
Co      4.03973572       1.22498132      18.07895984 
Co      4.03975976       3.79277408      18.07917076 
Co      4.07741849       6.27214887      18.01152417 
Co      2.04168303      -0.00864266      17.34259235 
Co      2.02268296       2.50890397      17.41600542 
Co      2.04181836       5.02633273      17.34261074 
Co     -0.00893980       1.25382049      16.73073814 
Co     -0.00895306       3.76388901      16.73090994 
Co     -0.01497262       6.27201905      16.72541730 
Co      4.09728932      -0.00358950      15.94421444 
Co      4.08398580       2.50882389      15.98828859 
Co      4.09717684       5.02125326      15.94430270 
Co      2.04469696       1.25832437      15.24365485 
Co      2.04449756       3.75915671      15.24363920 
Co      2.04795773       6.27213338      15.23367290 
Co      0.00092722       0.00205467      14.53915887 
Co     -0.00688432       2.50868456      14.55176463 
Co      0.00086393       5.01569467      14.53894403 
Co      4.09687751       1.25440743      13.79385974 
Co      4.09687751       3.76322229      13.79385974 
Co      4.09687751       6.27203715      13.79385974 
Co      2.04843876       0.00000000      13.06962727 
Co      2.04843876       2.50881486      13.06962727 
Co      2.04843876       5.01762972      13.06962727 
Co      0.00000000       1.25440743      12.34539480 
Co      0.00000000       3.76322229      12.34539480 
Co      0.00000000       6.27203715      12.34539480 
Co      4.09687751       0.00000000      11.62116234 
Co      4.09687751       2.50881486      11.62116234 
Co      4.09687751       5.01762972      11.62116234 
Co      2.04843876       1.25440743      10.89692987 
Co      2.04843876       3.76322229      10.89692987 
Co      2.04843876       6.27203715      10.89692987 
Co      0.00000000       0.00000000      10.17269740 
Co      0.00000000       2.50881486      10.17269740 
Co      0.00000000       5.01762972      10.17269740 
Co      4.09687751       1.25440743       9.44846493 
Co      4.09687751       3.76322229       9.44846493 
Co      4.09687751       6.27203715       9.44846493 
Co      2.04843876       0.00000000       8.72423247 
Co      2.04843876       2.50881486       8.72423247 
Co      2.04843876       5.01762972       8.72423247 
Co      0.00000000       1.25440743       8.00000000 
Co      0.00000000       3.76322229       8.00000000 
Co      0.00000000       6.27203715       8.00000000 
C      3.08031577       2.50897716      19.20942506 
O      2.66304225       2.50888176      20.32002811 
