47
Lattice="6.145316265254376 0.0 0.0 0.0 7.5264445789496115 0.0 0.0 0.0 26.1392545419605" Properties=species:S:1:pos:R:3 pbc="T T T"
Co      4.07131982       1.24430439      18.03195525 
Co      4.07688638       3.76313069      18.06029309 
Co      4.07127871       6.28208970      18.03220508 
Co      2.05731741       0.00002741      17.34382826 
Co      2.05418212       2.50107709      17.40495795 
Co      2.05415581       5.02519096      17.40513832 
Co     -0.00110769       1.23312549      16.71877304 
Co     -0.01574024       3.76307416      16.79790400 
Co     -0.00107693       6.29335349      16.71889696 
Co      4.09362374       0.00012144      15.95535070 
Co      4.10590853       2.51304922      15.96537849 
Co      4.10591994       5.01322311      15.96545226 
Co      2.05141650       1.25613443      15.23263940 
Co      2.04633350       3.76304236      15.25721886 
Co      2.05138164       6.27046316      15.23261745 
Co      0.00089184       0.00018738      14.54054412 
Co      0.00003046       2.51157171      14.54063119 
Co     -0.00007826       5.01467773      14.54053523 
Co      4.09687751       1.25440743      13.79385974 
Co      4.09687751       3.76322229      13.79385974 
Co      4.09687751       6.27203715      13.79385974 
Co      2.04843876       0.00000000      13.06962727 
Co      2.04843876       2.50881486      13.06962727 
Co      2.04843876       5.01762972      13.06962727 
Co      0.00000000       1.25440743      12.34539480 
Co      0.00000000       3.76322229      12.34539480 
Co      0.00000000       6.27203715      12.34539480 
Co      4.09687751       0.00000000      11.62116234 
Co      4.09687751       2.50881486      11.62116234 
Co      4.09687751       5.01762972      11.62116234 
Co      2.04843876       1.25440743      10.89692987 
Co      2.04843876       3.76322229      10.89692987 
Co      2.04843876       6.27203715      10.89692987 
Co      0.00000000       0.00000000      10.17269740 
Co      0.00000000       2.50881486      10.17269740 
Co      0.00000000       5.01762972      10.17269740 
Co      4.09687751       1.25440743       9.44846493 
Co      4.09687751       3.76322229       9.44846493 
Co      4.09687751       6.27203715       9.44846493 
Co      2.04843876       0.00000000       8.72423247 
Co      2.04843876       2.50881486       8.72423247 
Co      2.04843876       5.01762972       8.72423247 
Co      0.00000000       1.25440743       8.00000000 
Co      0.00000000       3.76322229       8.00000000 
Co      0.00000000       6.27203715       8.00000000 
C      0.95286939       3.76307877      18.50216820 
O      0.67585494       3.76308630      19.66199053 
