91
Lattice="13.042342580993648 0.0 0.0 0.0 7.530000000000001 0.0 0.0 0.0 26.17805" Properties=species:S:1:pos:R:3 pbc="T T T"
Co      0.79053666       1.25384994      18.07822603 
Co      0.79053963       3.76617503      18.07821509 
Co      0.79461935       6.27500686      18.07802195 
Co      2.92554392       0.00229156      18.10741526 
Co      2.91688710       2.50999973      18.11253827 
Co      2.92556172       5.01770501      18.10742785 
Co      5.05792978       1.25975838      18.08474311 
Co      5.05794877       3.76023493      18.08473425 
Co      5.05659541       6.27501367      18.08298684 
Co     -0.03330150      -0.00075732      16.16266700 
Co     -0.03574962       2.50999779      16.16344509 
Co     -0.03330482       5.02076816      16.16265578 
Co      2.16734560       1.25347171      16.13370578 
Co      2.16733869       3.76652278      16.13369755 
Co      2.16881014       6.27500033      16.13034343 
Co      4.35161486      -0.00191147      16.12901910 
Co      4.32902822       2.50999867      16.11275490 
Co      4.35163026       5.02190124      16.12902236 
Co      6.56562438       1.26161158      16.19139391 
Co      6.56564002       3.75837905      16.19138414 
Co      6.55497321       6.27499894      16.17929277 
Co      8.70104620      -0.00131094      16.10851303 
Co      8.71878103       2.50999949      16.10149075 
Co      8.70105447       5.02130831      16.10850870 
Co     10.87241250       1.25233660      16.11679574 
Co     10.87240532       3.76765573      16.11679854 
Co     10.86930494       6.27499933      16.11573792 
Co      0.72457459       1.25500000      14.10683000 
Co      0.72457459       3.76500000      14.10683000 
Co      0.72457459       6.27500000      14.10683000 
Co      2.89829835      -0.00000000      14.10683000 
Co      2.89829835       2.51000000      14.10683000 
Co      2.89829835       5.02000000      14.10683000 
Co      5.07202211       1.25500000      14.10683000 
Co      5.07202211       3.76500000      14.10683000 
Co      5.07202211       6.27500000      14.10683000 
Co      7.23175230       0.00300216      14.13179624 
Co      7.23717678       2.50999359      14.12113629 
Co      7.23174559       5.01700788      14.13179044 
Co      9.41292327       1.25371198      14.12420497 
Co      9.41291530       3.76628716      14.12419143 
Co      9.40988033       6.27500507      14.12435809 
Co     11.58694572      -0.00047651      14.11909659 
Co     11.58582857       2.50999512      14.12038057 
Co     11.58694602       5.02048376      14.11909240 
Co      0.00000000       0.00000000      12.07122000 
Co      0.00000000       2.51000000      12.07122000 
Co      0.00000000       5.02000000      12.07122000 
Co      2.17372376       1.25500000      12.07122000 
Co      2.17372376       3.76500000      12.07122000 
Co      2.17372376       6.27500000      12.07122000 
Co      4.34744753      -0.00000000      12.07122000 
Co      4.34744753       2.51000000      12.07122000 
Co      4.34744753       5.02000000      12.07122000 
Co      6.52117129       1.25500000      12.07122000 
Co      6.52117129       3.76500000      12.07122000 
Co      6.52117129       6.27500000      12.07122000 
Co      8.69489505      -0.00000000      12.07122000 
Co      8.69489505       2.51000000      12.07122000 
Co      8.69489505       5.02000000      12.07122000 
Co     10.86861882       1.25500000      12.07122000 
Co     10.86861882       3.76500000      12.07122000 
Co     10.86861882       6.27500000      12.07122000 
Co      0.72457459       1.25500000      10.03561000 
Co      0.72457459       3.76500000      10.03561000 
Co      0.72457459       6.27500000      10.03561000 
Co      2.89829835      -0.00000000      10.03561000 
Co      2.89829835       2.51000000      10.03561000 
Co      2.89829835       5.02000000      10.03561000 
Co      5.07202211       1.25500000      10.03561000 
Co      5.07202211       3.76500000      10.03561000 
Co      5.07202211       6.27500000      10.03561000 
Co      7.24574588      -0.00000000      10.03561000 
Co      7.24574588       2.51000000      10.03561000 
Co      7.24574588       5.02000000      10.03561000 
Co      9.41946964       1.25500000      10.03561000 
Co      9.41946964       3.76500000      10.03561000 
Co      9.41946964       6.27500000      10.03561000 
Co     11.59319341      -0.00000000      10.03561000 
Co     11.59319341       2.51000000      10.03561000 
Co     11.59319341       5.02000000      10.03561000 
Co      6.52117129       1.25500000       8.00000000 
Co      6.52117129       3.76500000       8.00000000 
Co      6.52117129       6.27500000       8.00000000 
Co      8.69489505      -0.00000000       8.00000000 
Co      8.69489505       2.51000000       8.00000000 
Co      8.69489505       5.02000000       8.00000000 
Co     10.86861882       1.25500000       8.00000000 
Co     10.86861882       3.76500000       8.00000000 
Co     10.86861882       6.27500000       8.00000000 
H      6.32982800       2.50998216      17.61826880 
