91
Lattice="13.042342580993648 0.0 0.0 0.0 7.530000000000001 0.0 0.0 0.0 26.17805" Properties=species:S:1:pos:R:3 pbc="T T T"
Co      0.76524721       1.25017321      18.07835641 
Co      0.76525866       3.76982319      18.07835265 
Co      0.76951291       6.27499636      18.07313769 
Co      2.90661201      -0.00372254      18.10676997 
Co      2.87742633       2.51001845      18.11416319 
Co      2.90659518       5.02372890      18.10676151 
Co      5.00091361       1.25477578      18.10115420 
Co      5.00090524       3.76525986      18.10116846 
Co      5.06817630       6.27501266      18.06868712 
Co     -0.04125423      -0.00054248      16.15624750 
Co     -0.04122941       2.51000107      16.16069343 
Co     -0.04125728       5.02053103      16.15623386 
Co      2.16029881       1.25264694      16.13395929 
Co      2.16031149       3.76735528      16.13394591 
Co      2.16106969       6.27500832      16.13038100 
Co      4.34690334       0.00105251      16.12682995 
Co      4.33127515       2.51000185      16.13076201 
Co      4.34688166       5.01894726      16.12685302 
Co      6.54704384       1.24700530      16.20961970 
Co      6.54703409       3.77295972      16.20961796 
Co      6.54822863       6.27498776      16.15953566 
Co      8.69709827      -0.00538539      16.10321304 
Co      8.70779468       2.50998336      16.12515577 
Co      8.69708853       5.02535762      16.10319707 
Co     10.86389847       1.25590682      16.11408071 
Co     10.86389444       3.76406118      16.11408019 
Co     10.87009048       6.27500149      16.12063053 
Co      0.72457459       1.25500000      14.10683000 
Co      0.72457459       3.76500000      14.10683000 
Co      0.72457459       6.27500000      14.10683000 
Co      2.89829835      -0.00000000      14.10683000 
Co      2.89829835       2.51000000      14.10683000 
Co      2.89829835       5.02000000      14.10683000 
Co      5.07202211       1.25500000      14.10683000 
Co      5.07202211       3.76500000      14.10683000 
Co      5.07202211       6.27500000      14.10683000 
Co      7.23189170       0.00386618      14.12589719 
Co      7.23338563       2.50999172      14.12681555 
Co      7.23188653       5.01611229      14.12588272 
Co      9.41295332       1.25672863      14.12433684 
Co      9.41295932       3.76326010      14.12435841 
Co      9.40995709       6.27498607      14.12525950 
Co     11.58527703      -0.00051086      14.11861201 
Co     11.58833387       2.51000626      14.11825694 
Co     11.58527781       5.02049088      14.11860296 
Co      0.00000000       0.00000000      12.07122000 
Co      0.00000000       2.51000000      12.07122000 
Co      0.00000000       5.02000000      12.07122000 
Co      2.17372376       1.25500000      12.07122000 
Co      2.17372376       3.76500000      12.07122000 
Co      2.17372376       6.27500000      12.07122000 
Co      4.34744753      -0.00000000      12.07122000 
Co      4.34744753       2.51000000      12.07122000 
Co      4.34744753       5.02000000      12.07122000 
Co      6.52117129       1.25500000      12.07122000 
Co      6.52117129       3.76500000      12.07122000 
Co      6.52117129       6.27500000      12.07122000 
Co      8.69489505      -0.00000000      12.07122000 
Co      8.69489505       2.51000000      12.07122000 
Co      8.69489505       5.02000000      12.07122000 
Co     10.86861882       1.25500000      12.07122000 
Co     10.86861882       3.76500000      12.07122000 
Co     10.86861882       6.27500000      12.07122000 
Co      0.72457459       1.25500000      10.03561000 
Co      0.72457459       3.76500000      10.03561000 
Co      0.72457459       6.27500000      10.03561000 
Co      2.89829835      -0.00000000      10.03561000 
Co      2.89829835       2.51000000      10.03561000 
Co      2.89829835       5.02000000      10.03561000 
Co      5.07202211       1.25500000      10.03561000 
Co      5.07202211       3.76500000      10.03561000 
Co      5.07202211       6.27500000      10.03561000 
Co      7.24574588      -0.00000000      10.03561000 
Co      7.24574588       2.51000000      10.03561000 
Co      7.24574588       5.02000000      10.03561000 
Co      9.41946964       1.25500000      10.03561000 
Co      9.41946964       3.76500000      10.03561000 
Co      9.41946964       6.27500000      10.03561000 
Co     11.59319341      -0.00000000      10.03561000 
Co     11.59319341       2.51000000      10.03561000 
Co     11.59319341       5.02000000      10.03561000 
Co      6.52117129       1.25500000       8.00000000 
Co      6.52117129       3.76500000       8.00000000 
Co      6.52117129       6.27500000       8.00000000 
Co      8.69489505      -0.00000000       8.00000000 
Co      8.69489505       2.51000000       8.00000000 
Co      8.69489505       5.02000000       8.00000000 
Co     10.86861882       1.25500000       8.00000000 
Co     10.86861882       3.76500000       8.00000000 
Co     10.86861882       6.27500000       8.00000000 
H      7.30682571       2.50995948      17.17568514 
