46
Lattice="6.145316265254376 0.0 0.0 0.0 7.5264445789496115 0.0 0.0 0.0 26.1392545419605" Properties=species:S:1:pos:R:3 pbc="T T T"
Co      4.04181775       1.25317561      18.04414984 
Co      4.04178859       3.76449992      18.04390597 
Co      4.10808545       6.27190986      18.04194587 
Co      2.06645774      -0.00935603      17.35235671 
Co      2.05144446       2.50892043      17.37336829 
Co      2.06643486       5.02687660      17.35229717 
Co     -0.01170849       1.24119188      16.76524850 
Co     -0.01163292       3.77648722      16.76510842 
Co      0.00663323       6.27190358      16.72386346 
Co      4.10329415       0.00000925      15.96343042 
Co      4.08845024       2.50891018      15.95992894 
Co      4.10332448       5.01748860      15.96323392 
Co      2.05088242       1.25258197      15.23967630 
Co      2.05091635       3.76517035      15.23954286 
Co      2.05323439       6.27187418      15.23352452 
Co      0.00109283       0.00573665      14.54893920 
Co     -0.00037557       2.50900800      14.54574078 
Co      0.00108857       5.01167287      14.54879321 
Co      4.09687751       1.25440743      13.79385974 
Co      4.09687751       3.76322229      13.79385974 
Co      4.09687751       6.27203715      13.79385974 
Co      2.04843876       0.00000000      13.06962727 
Co      2.04843876       2.50881486      13.06962727 
Co      2.04843876       5.01762972      13.06962727 
Co      0.00000000       1.25440743      12.34539480 
Co      0.00000000       3.76322229      12.34539480 
Co      0.00000000       6.27203715      12.34539480 
Co      4.09687751       0.00000000      11.62116234 
Co      4.09687751       2.50881486      11.62116234 
Co      4.09687751       5.01762972      11.62116234 
Co      2.04843876       1.25440743      10.89692987 
Co      2.04843876       3.76322229      10.89692987 
Co      2.04843876       6.27203715      10.89692987 
Co      0.00000000       0.00000000      10.17269740 
Co      0.00000000       2.50881486      10.17269740 
Co      0.00000000       5.01762972      10.17269740 
Co      4.09687751       1.25440743       9.44846493 
Co      4.09687751       3.76322229       9.44846493 
Co      4.09687751       6.27203715       9.44846493 
Co      2.04843876       0.00000000       8.72423247 
Co      2.04843876       2.50881486       8.72423247 
Co      2.04843876       5.01762972       8.72423247 
Co      0.00000000       1.25440743       8.00000000 
Co      0.00000000       3.76322229       8.00000000 
Co      0.00000000       6.27203715       8.00000000 
H      0.41283325       2.50874408      17.92192287 
