46
Lattice="6.392918 0.0 0.0 0.0 8.577 0.0 0.0 0.0 24.950086" Properties=species:S:1:pos:R:3 pbc="T T T"
Fe      4.57504102       1.43563962      16.86887829 
Fe      4.69603490       4.28850601      16.87385180 
Fe      4.57504737       7.14142711      16.86885079 
Fe      2.61510240       0.00017218      16.34953235 
Fe      2.61705579       2.87858101      16.37204872 
Fe      2.61700441       5.69831647      16.37208047 
Fe      0.64982283       1.43811481      15.73889562 
Fe      0.63533819       4.28840729      15.80585129 
Fe      0.64993681       7.13904319      15.73907112 
Fe      5.12911691       0.00015495      15.01887787 
Fe      5.12593017       2.85303835      15.00655677 
Fe      5.12624369       5.72385126      15.00683146 
Fe      3.18773161       1.43317435      14.41651492 
Fe      3.18560297       4.28850023      14.42749553 
Fe      3.18788861       7.14383776      14.41645238 
Fe      1.27460613       0.00008254      13.78448775 
Fe      1.26941303       2.86553367      13.79110842 
Fe      1.26922697       5.71140524      13.79100788 
Fe      5.75362620       1.42950000      13.11433484 
Fe      5.75362620       4.28850000      13.11433484 
Fe      5.75362620       7.14750000      13.11433484 
Fe      3.83575080       0.00000000      12.47504300 
Fe      3.83575080       2.85900000      12.47504300 
Fe      3.83575080       5.71800000      12.47504300 
Fe      1.91787540       1.42950000      11.83575116 
Fe      1.91787540       4.28850000      11.83575116 
Fe      1.91787540       7.14750000      11.83575116 
Fe      0.00000000       0.00000000      11.19645933 
Fe      0.00000000       2.85900000      11.19645933 
Fe      0.00000000       5.71800000      11.19645933 
Fe      4.47504260       1.42950000      10.55716746 
Fe      4.47504260       4.28850000      10.55716746 
Fe      4.47504260       7.14750000      10.55716746 
Fe      2.55716720       0.00000000       9.91787563 
Fe      2.55716720       2.85900000       9.91787563 
Fe      2.55716720       5.71800000       9.91787563 
Fe      0.63929180       1.42950000       9.27858379 
Fe      0.63929180       4.28850000       9.27858379 
Fe      0.63929180       7.14750000       9.27858379 
Fe      5.11433440       0.00000000       8.63929195 
Fe      5.11433440       2.85900000       8.63929195 
Fe      5.11433440       5.71800000       8.63929195 
Fe      3.19645900       1.42950000       8.00000009 
Fe      3.19645900       4.28850000       8.00000009 
Fe      3.19645900       7.14750000       8.00000009 
H      6.38162571       4.28859619      17.35060123 
