91
Lattice="13.042342580993648 0.0 0.0 0.0 7.530000000000001 0.0 0.0 0.0 26.17805" Properties=species:S:1:pos:R:3 pbc="T T T"
Co      0.76464895       1.24879061      18.07556205 
Co      0.75400522       3.76500137      18.07749629 
Co      0.76460120       6.28114174      18.07552308 
Co      2.90466646       0.00004473      18.10272343 
Co      2.87174163       2.50925530      18.11944763 
Co      2.87172876       5.02070010      18.11924202 
Co      5.02138373       1.24077213      18.07484830 
Co      4.98987248       3.76499452      18.15139859 
Co      5.02129757       6.28922221      18.07466990 
Co     -0.03209152      -0.00001744      16.15181072 
Co     -0.03680939       2.50963042      16.15639558 
Co     -0.03681703       5.02038657      16.15638368 
Co      2.16570284       1.25704387      16.13048005 
Co      2.16433879       3.76502914      16.14047938 
Co      2.16570379       6.27297638      16.13053118 
Co      4.33728792      -0.00001669      16.12458448 
Co      4.34768900       2.51773633      16.13501861 
Co      4.34768828       5.01225989      16.13506416 
Co      6.54636716       1.22789693      16.14000246 
Co      6.61926977       3.76497382      16.30999658 
Co      6.54636379       6.30215515      16.14006134 
Co      8.70368549      -0.00000409      16.10381733 
Co      8.72810176       2.49558517      16.10207962 
Co      8.72808453       5.03442784      16.10213350 
Co     10.87856366       1.25040645      16.11716120 
Co     10.87990514       3.76501286      16.11594148 
Co     10.87856605       6.27960102      16.11720661 
Co      0.72457459       1.25500000      14.10683000 
Co      0.72457459       3.76500000      14.10683000 
Co      0.72457459       6.27500000      14.10683000 
Co      2.89829835      -0.00000000      14.10683000 
Co      2.89829835       2.51000000      14.10683000 
Co      2.89829835       5.02000000      14.10683000 
Co      5.07202211       1.25500000      14.10683000 
Co      5.07202211       3.76500000      14.10683000 
Co      5.07202211       6.27500000      14.10683000 
Co      7.24068446      -0.00000142      14.10887812 
Co      7.23105415       2.52563858      14.14420312 
Co      7.23103085       5.00435156      14.14424770 
Co      9.41176222       1.25611978      14.12367861 
Co      9.41598479       3.76501077      14.12165036 
Co      9.41177534       6.27389391      14.12368912 
Co     11.58539559       0.00001385      14.11465951 
Co     11.58684114       2.50921503      14.11830162 
Co     11.58684983       5.02078021      14.11833408 
Co      0.00000000       0.00000000      12.07122000 
Co      0.00000000       2.51000000      12.07122000 
Co      0.00000000       5.02000000      12.07122000 
Co      2.17372376       1.25500000      12.07122000 
Co      2.17372376       3.76500000      12.07122000 
Co      2.17372376       6.27500000      12.07122000 
Co      4.34744753      -0.00000000      12.07122000 
Co      4.34744753       2.51000000      12.07122000 
Co      4.34744753       5.02000000      12.07122000 
Co      6.52117129       1.25500000      12.07122000 
Co      6.52117129       3.76500000      12.07122000 
Co      6.52117129       6.27500000      12.07122000 
Co      8.69489505      -0.00000000      12.07122000 
Co      8.69489505       2.51000000      12.07122000 
Co      8.69489505       5.02000000      12.07122000 
Co     10.86861882       1.25500000      12.07122000 
Co     10.86861882       3.76500000      12.07122000 
Co     10.86861882       6.27500000      12.07122000 
Co      0.72457459       1.25500000      10.03561000 
Co      0.72457459       3.76500000      10.03561000 
Co      0.72457459       6.27500000      10.03561000 
Co      2.89829835      -0.00000000      10.03561000 
Co      2.89829835       2.51000000      10.03561000 
Co      2.89829835       5.02000000      10.03561000 
Co      5.07202211       1.25500000      10.03561000 
Co      5.07202211       3.76500000      10.03561000 
Co      5.07202211       6.27500000      10.03561000 
Co      7.24574588      -0.00000000      10.03561000 
Co      7.24574588       2.51000000      10.03561000 
Co      7.24574588       5.02000000      10.03561000 
Co      9.41946964       1.25500000      10.03561000 
Co      9.41946964       3.76500000      10.03561000 
Co      9.41946964       6.27500000      10.03561000 
Co     11.59319341      -0.00000000      10.03561000 
Co     11.59319341       2.51000000      10.03561000 
Co     11.59319341       5.02000000      10.03561000 
Co      6.52117129       1.25500000       8.00000000 
Co      6.52117129       3.76500000       8.00000000 
Co      6.52117129       6.27500000       8.00000000 
Co      8.69489505      -0.00000000       8.00000000 
Co      8.69489505       2.51000000       8.00000000 
Co      8.69489505       5.02000000       8.00000000 
Co     10.86861882       1.25500000       8.00000000 
Co     10.86861882       3.76500000       8.00000000 
Co     10.86861882       6.27500000       8.00000000 
O      6.77214854       3.76499128      18.19020522 
