46
Lattice="6.145316265254376 0.0 0.0 0.0 7.5264445789496115 0.0 0.0 0.0 26.1392545419605" Properties=species:S:1:pos:R:3 pbc="T T T"
Co      4.10739014       1.23047383      18.02969436 
Co      4.10729291       3.78748892      18.02948777 
Co      4.09194124       6.27170370      18.02753053 
Co      2.06152163      -0.00964520      17.34419034 
Co      1.99560087       2.50933366      17.61982100 
Co      2.06148139       5.02680096      17.34413800 
Co     -0.00231708       1.24853467      16.71351082 
Co     -0.00217445       3.76958267      16.71352458 
Co     -0.00439936       6.27155927      16.73132697 
Co      4.10321270      -0.00271473      15.94836582 
Co      4.08715781       2.50919469      15.97643628 
Co      4.10326131       5.01992783      15.94828512 
Co      2.05072852       1.26820814      15.24888866 
Co      2.05065245       3.74989014      15.24892794 
Co      2.05090358       6.27160863      15.24370909 
Co      0.00372865       0.00155459      14.53976883 
Co     -0.00745317       2.50922800      14.53334812 
Co      0.00373464       5.01563227      14.53985504 
Co      4.09687751       1.25440743      13.79385974 
Co      4.09687751       3.76322229      13.79385974 
Co      4.09687751       6.27203715      13.79385974 
Co      2.04843876       0.00000000      13.06962727 
Co      2.04843876       2.50881486      13.06962727 
Co      2.04843876       5.01762972      13.06962727 
Co      0.00000000       1.25440743      12.34539480 
Co      0.00000000       3.76322229      12.34539480 
Co      0.00000000       6.27203715      12.34539480 
Co      4.09687751       0.00000000      11.62116234 
Co      4.09687751       2.50881486      11.62116234 
Co      4.09687751       5.01762972      11.62116234 
Co      2.04843876       1.25440743      10.89692987 
Co      2.04843876       3.76322229      10.89692987 
Co      2.04843876       6.27203715      10.89692987 
Co      0.00000000       0.00000000      10.17269740 
Co      0.00000000       2.50881486      10.17269740 
Co      0.00000000       5.01762972      10.17269740 
Co      4.09687751       1.25440743       9.44846493 
Co      4.09687751       3.76322229       9.44846493 
Co      4.09687751       6.27203715       9.44846493 
Co      2.04843876       0.00000000       8.72423247 
Co      2.04843876       2.50881486       8.72423247 
Co      2.04843876       5.01762972       8.72423247 
Co      0.00000000       1.25440743       8.00000000 
Co      0.00000000       3.76322229       8.00000000 
Co      0.00000000       6.27203715       8.00000000 
O      1.48298903       2.50883403      19.21653202 
