46
Lattice="6.392918 0.0 0.0 0.0 8.577 0.0 0.0 0.0 24.950086" Properties=species:S:1:pos:R:3 pbc="T T T"
Fe      4.61233393       1.44675858      16.88001063 
Fe      4.49686906       4.28980672      16.85223378 
Fe      4.61122662       7.13103588      16.88092259 
Fe      2.63042507      -0.00123909      16.35078520 
Fe      2.60949732       2.86790571      16.33830478 
Fe      2.60801171       5.71073542      16.33883737 
Fe      0.64472938       1.41914012      15.71521443 
Fe      0.61336025       4.28959939      15.79538327 
Fe      0.64459201       7.15637147      15.71691246 
Fe      5.12470856      -0.00044032      15.02290137 
Fe      5.11198178       2.86844090      15.01565375 
Fe      5.11167426       5.70983832      15.01552836 
Fe      3.19179864       1.43099863      14.41484558 
Fe      3.17152110       4.28971666      14.39757028 
Fe      3.19158417       7.14485588      14.41479136 
Fe      1.27628715      -0.00093683      13.77639875 
Fe      1.26561918       2.86365549      13.79181871 
Fe      1.26612074       5.71427287      13.79205918 
Fe      5.75362620       1.42950000      13.11433484 
Fe      5.75362620       4.28850000      13.11433484 
Fe      5.75362620       7.14750000      13.11433484 
Fe      3.83575080       0.00000000      12.47504300 
Fe      3.83575080       2.85900000      12.47504300 
Fe      3.83575080       5.71800000      12.47504300 
Fe      1.91787540       1.42950000      11.83575116 
Fe      1.91787540       4.28850000      11.83575116 
Fe      1.91787540       7.14750000      11.83575116 
Fe      0.00000000       0.00000000      11.19645933 
Fe      0.00000000       2.85900000      11.19645933 
Fe      0.00000000       5.71800000      11.19645933 
Fe      4.47504260       1.42950000      10.55716746 
Fe      4.47504260       4.28850000      10.55716746 
Fe      4.47504260       7.14750000      10.55716746 
Fe      2.55716720       0.00000000       9.91787563 
Fe      2.55716720       2.85900000       9.91787563 
Fe      2.55716720       5.71800000       9.91787563 
Fe      0.63929180       1.42950000       9.27858379 
Fe      0.63929180       4.28850000       9.27858379 
Fe      0.63929180       7.14750000       9.27858379 
Fe      5.11433440       0.00000000       8.63929195 
Fe      5.11433440       2.85900000       8.63929195 
Fe      5.11433440       5.71800000       8.63929195 
Fe      3.19645900       1.42950000       8.00000009 
Fe      3.19645900       4.28850000       8.00000009 
Fe      3.19645900       7.14750000       8.00000009 
O      5.32670782       4.28872265      18.23893776 
