47
Lattice="6.145316265254376 0.0 0.0 0.0 7.5264445789496115 0.0 0.0 0.0 26.1392545419605" Properties=species:S:1:pos:R:3 pbc="T T T"
Co      4.15615468       1.22489487      18.02994235 
Co      4.15605154       3.79283189      18.02968893 
Co      4.08057373       6.27209000      18.03612743 
Co      2.06520637      -0.00689607      17.34561519 
Co      2.04396773       2.50879120      17.58918472 
Co      2.06526694       5.02468614      17.34550592 
Co      0.00831482       1.25385055      16.69289353 
Co      0.00829121       3.76378205      16.69297314 
Co     -0.00381353       6.27207134      16.74422626 
Co      4.10443140      -0.00286681      15.95118343 
Co      4.06813977       2.50880614      15.98223278 
Co      4.10444018       5.02053946      15.95138130 
Co      2.05249159       1.27073747      15.25479888 
Co      2.05249300       3.74690850      15.25492483 
Co      2.04903354       6.27204912      15.24583971 
Co      0.00620380      -0.00237487      14.53534541 
Co     -0.00519062       2.50878428      14.52944570 
Co      0.00614048       5.02000197      14.53532673 
Co      4.09687751       1.25440743      13.79385974 
Co      4.09687751       3.76322229      13.79385974 
Co      4.09687751       6.27203715      13.79385974 
Co      2.04843876       0.00000000      13.06962727 
Co      2.04843876       2.50881486      13.06962727 
Co      2.04843876       5.01762972      13.06962727 
Co      0.00000000       1.25440743      12.34539480 
Co      0.00000000       3.76322229      12.34539480 
Co      0.00000000       6.27203715      12.34539480 
Co      4.09687751       0.00000000      11.62116234 
Co      4.09687751       2.50881486      11.62116234 
Co      4.09687751       5.01762972      11.62116234 
Co      2.04843876       1.25440743      10.89692987 
Co      2.04843876       3.76322229      10.89692987 
Co      2.04843876       6.27203715      10.89692987 
Co      0.00000000       0.00000000      10.17269740 
Co      0.00000000       2.50881486      10.17269740 
Co      0.00000000       5.01762972      10.17269740 
Co      4.09687751       1.25440743       9.44846493 
Co      4.09687751       3.76322229       9.44846493 
Co      4.09687751       6.27203715       9.44846493 
Co      2.04843876       0.00000000       8.72423247 
Co      2.04843876       2.50881486       8.72423247 
Co      2.04843876       5.01762972       8.72423247 
Co      0.00000000       1.25440743       8.00000000 
Co      0.00000000       3.76322229       8.00000000 
Co      0.00000000       6.27203715       8.00000000 
O      1.44539455       2.50880795      19.35964993 
H      2.12978473       2.50887203      20.04517462 
