47
Lattice="6.145316265254376 0.0 0.0 0.0 7.5264445789496115 0.0 0.0 0.0 26.1392545419605" Properties=species:S:1:pos:R:3 pbc="T T T"
Co      4.07272714       1.23449464      18.05034248 
Co      4.07540746       3.76329352      18.16154853 
Co      4.07276664       6.29185074      18.05039231 
Co      2.05693046      -0.00013312      17.35955603 
Co      2.05681107       2.51355917      17.34827701 
Co      2.05683626       5.01306763      17.34818272 
Co      0.00488032       1.25225630      16.73057515 
Co     -0.00733263       3.76336507      16.73922570 
Co      0.00481318       6.27411813      16.73041037 
Co      4.11014742      -0.00026028      15.97516877 
Co      4.10269845       2.51476233      15.98086965 
Co      4.10280428       5.01201829      15.98087199 
Co      2.06068455       1.25628644      15.24212912 
Co      2.05591529       3.76346059      15.24333540 
Co      2.06083243       6.26996558      15.24220915 
Co      0.00367017      -0.00027463      14.54490874 
Co      0.00204957       2.51218002      14.54732736 
Co      0.00216204       5.01451600      14.54729496 
Co      4.09687751       1.25440743      13.79385974 
Co      4.09687751       3.76322229      13.79385974 
Co      4.09687751       6.27203715      13.79385974 
Co      2.04843876       0.00000000      13.06962727 
Co      2.04843876       2.50881486      13.06962727 
Co      2.04843876       5.01762972      13.06962727 
Co      0.00000000       1.25440743      12.34539480 
Co      0.00000000       3.76322229      12.34539480 
Co      0.00000000       6.27203715      12.34539480 
Co      4.09687751       0.00000000      11.62116234 
Co      4.09687751       2.50881486      11.62116234 
Co      4.09687751       5.01762972      11.62116234 
Co      2.04843876       1.25440743      10.89692987 
Co      2.04843876       3.76322229      10.89692987 
Co      2.04843876       6.27203715      10.89692987 
Co      0.00000000       0.00000000      10.17269740 
Co      0.00000000       2.50881486      10.17269740 
Co      0.00000000       5.01762972      10.17269740 
Co      4.09687751       1.25440743       9.44846493 
Co      4.09687751       3.76322229       9.44846493 
Co      4.09687751       6.27203715       9.44846493 
Co      2.04843876       0.00000000       8.72423247 
Co      2.04843876       2.50881486       8.72423247 
Co      2.04843876       5.01762972       8.72423247 
Co      0.00000000       1.25440743       8.00000000 
Co      0.00000000       3.76322229       8.00000000 
Co      0.00000000       6.27203715       8.00000000 
O      4.48377671       3.76413222      19.93698153 
H      5.42728082       3.76293475      20.15633299 
