92
Lattice="13.042342580993648 0.0 0.0 0.0 7.530000000000001 0.0 0.0 0.0 26.17805" Properties=species:S:1:pos:R:3 pbc="T T T"
Co      0.78574889       1.26625727      18.05725909 
Co      0.71956394       3.78000354      18.04568968 
Co      0.78517366       6.29475522      18.05722099 
Co      2.93564003       0.01256666      18.09030350 
Co      2.89032048       2.49787428      18.20177461 
Co      2.88929284       5.05520129      18.19952237 
Co      5.09812540       1.24006633      18.03637907 
Co      5.06897303       3.78395321      18.08668811 
Co      5.09480062       6.32248934      18.03796883 
Co     -0.04356045       0.00748464      16.14556942 
Co     -0.04572478       2.51275703      16.14442709 
Co     -0.04549731       5.03237462      16.14439220 
Co      2.16686871       1.27018732      16.12823673 
Co      2.16558198       3.77197338      16.16435214 
Co      2.16698729       6.27364132      16.12887764 
Co      4.34182374       0.00726189      16.10231793 
Co      4.33614533       2.52001372      16.14213277 
Co      4.33678903       5.02540870      16.14131804 
Co      6.55942716       1.25410449      16.15918892 
Co      6.55108919       3.76613967      16.19938287 
Co      6.55830759       6.27730125      16.15966235 
Co      8.70024749       0.00191759      16.10755877 
Co      8.69619800       2.51387961      16.11004045 
Co      8.69598261       5.01997372      16.10980945 
Co     10.86327811       1.25897080      16.11695430 
Co     10.86462221       3.76878080      16.11855701 
Co     10.86333233       6.27822861      16.11700506 
Co      0.72457459       1.25500000      14.10683000 
Co      0.72457459       3.76500000      14.10683000 
Co      0.72457459       6.27500000      14.10683000 
Co      2.89829835      -0.00000000      14.10683000 
Co      2.89829835       2.51000000      14.10683000 
Co      2.89829835       5.02000000      14.10683000 
Co      5.07202211       1.25500000      14.10683000 
Co      5.07202211       3.76500000      14.10683000 
Co      5.07202211       6.27500000      14.10683000 
Co      7.23640379       0.00032547      14.11916381 
Co      7.23461196       2.51371484      14.12097516 
Co      7.23471298       5.01708215      14.12103616 
Co      9.41024029       1.25675491      14.12545885 
Co      9.41092044       3.76557168      14.12666039 
Co      9.41016888       6.27499728      14.12560767 
Co     11.58292867       0.00073294      14.11687477 
Co     11.58387893       2.51109565      14.11727848 
Co     11.58417012       5.02046121      14.11726828 
Co      0.00000000       0.00000000      12.07122000 
Co      0.00000000       2.51000000      12.07122000 
Co      0.00000000       5.02000000      12.07122000 
Co      2.17372376       1.25500000      12.07122000 
Co      2.17372376       3.76500000      12.07122000 
Co      2.17372376       6.27500000      12.07122000 
Co      4.34744753      -0.00000000      12.07122000 
Co      4.34744753       2.51000000      12.07122000 
Co      4.34744753       5.02000000      12.07122000 
Co      6.52117129       1.25500000      12.07122000 
Co      6.52117129       3.76500000      12.07122000 
Co      6.52117129       6.27500000      12.07122000 
Co      8.69489505      -0.00000000      12.07122000 
Co      8.69489505       2.51000000      12.07122000 
Co      8.69489505       5.02000000      12.07122000 
Co     10.86861882       1.25500000      12.07122000 
Co     10.86861882       3.76500000      12.07122000 
Co     10.86861882       6.27500000      12.07122000 
Co      0.72457459       1.25500000      10.03561000 
Co      0.72457459       3.76500000      10.03561000 
Co      0.72457459       6.27500000      10.03561000 
Co      2.89829835      -0.00000000      10.03561000 
Co      2.89829835       2.51000000      10.03561000 
Co      2.89829835       5.02000000      10.03561000 
Co      5.07202211       1.25500000      10.03561000 
Co      5.07202211       3.76500000      10.03561000 
Co      5.07202211       6.27500000      10.03561000 
Co      7.24574588      -0.00000000      10.03561000 
Co      7.24574588       2.51000000      10.03561000 
Co      7.24574588       5.02000000      10.03561000 
Co      9.41946964       1.25500000      10.03561000 
Co      9.41946964       3.76500000      10.03561000 
Co      9.41946964       6.27500000      10.03561000 
Co     11.59319341      -0.00000000      10.03561000 
Co     11.59319341       2.51000000      10.03561000 
Co     11.59319341       5.02000000      10.03561000 
Co      6.52117129       1.25500000       8.00000000 
Co      6.52117129       3.76500000       8.00000000 
Co      6.52117129       6.27500000       8.00000000 
Co      8.69489505      -0.00000000       8.00000000 
Co      8.69489505       2.51000000       8.00000000 
Co      8.69489505       5.02000000       8.00000000 
Co     10.86861882       1.25500000       8.00000000 
Co     10.86861882       3.76500000       8.00000000 
Co     10.86861882       6.27500000       8.00000000 
O      3.70061464       3.77616642      19.60177670 
H      3.70172761       3.76964435      20.56718125 
