60
Lattice="13.028215888 0.0 0.0 0.0 5.31874686405 0.0 0.0 0.0 26.7477297681" Properties=species:S:1:pos:R:3 pbc="T T T"
Cu      4.23213478       1.39372032      18.64588627 
Cu      4.23214024       3.92502535      18.64588501 
Cu     10.89803136       1.29342548      18.55732225 
Cu     10.89803117       4.02531811      18.55732068 
Cu      2.12181414       0.00000137      17.94403581 
Cu      2.14748454       2.65937326      17.87914390 
Cu      8.71630903       0.00000028      17.89653057 
Au      8.65937321       2.65937351      18.14046787 
Cu      0.03424583       1.29260705      17.27930357 
Cu      0.03424796       4.02614109      17.27930184 
Cu      6.55384884       1.34490313      17.22099200 
Cu      6.55384728       3.97384707      17.22099244 
Au      4.39334112       0.00000149      16.44598662 
Cu      4.39370922       2.65937337      16.41368729 
Cu     10.90826177      -0.00000137      16.38527871 
Cu     10.86145269       2.65937213      16.43561762 
Cu      2.18320171       1.31815739      15.65508167 
Cu      2.18320358       4.00058923      15.65508226 
Cu      8.68851873       1.35253723      15.69442996 
Cu      8.68851972       3.96621276      15.69443289 
Cu      0.01694418      -0.00000203      14.89530745 
Au      0.00326296       2.65937127      14.92942110 
Cu      6.53065145      -0.00000019      14.90652187 
Cu      6.52291250       2.65937442      14.88808562 
Cu      4.34273863       1.32968672      14.14155987 
Cu      4.34273863       3.98906015      14.14155987 
Cu     10.85684657       1.32968672      14.14155987 
Cu     10.85684657       3.98906015      14.14155987 
Cu      2.17136931       0.00000000      13.37386488 
Cu      2.17136931       2.65937343      13.37386488 
Au      8.68547726       0.00000000      13.37386488 
Cu      8.68547726       2.65937343      13.37386488 
Cu      0.00000000       1.32968672      12.60616990 
Cu     -0.00000000       3.98906015      12.60616990 
Cu      6.51410794       1.32968672      12.60616990 
Cu      6.51410794       3.98906015      12.60616990 
Cu      4.34273863       0.00000000      11.83847492 
Au      4.34273863       2.65937343      11.83847492 
Cu     10.85684657       0.00000000      11.83847492 
Cu     10.85684657       2.65937343      11.83847492 
Cu      2.17136931       1.32968672      11.07077993 
Cu      2.17136931       3.98906015      11.07077993 
Cu      8.68547726       1.32968672      11.07077993 
Cu      8.68547726       3.98906015      11.07077993 
Au      0.00000000      -0.00000000      10.30308495 
Cu     -0.00000000       2.65937343      10.30308495 
Cu      6.51410794       0.00000000      10.30308495 
Cu      6.51410794       2.65937343      10.30308495 
Cu      4.34273863       1.32968672       9.53538997 
Cu      4.34273863       3.98906015       9.53538997 
Cu     10.85684657       1.32968672       9.53538997 
Cu     10.85684657       3.98906015       9.53538997 
Cu      2.17136931       0.00000000       8.76769498 
Cu      2.17136931       2.65937343       8.76769498 
Cu      8.68547726       0.00000000       8.76769498 
Au      8.68547726       2.65937343       8.76769498 
Cu      0.00000000       1.32968672       8.00000000 
Cu      0.00000000       3.98906015       8.00000000 
Cu      6.51410794       1.32968672       8.00000000 
Cu      6.51410794       3.98906015       8.00000000 
