30
Lattice="14.129088919465687 8.548219001924682e-06 0.0 -1.4802973661668753e-16 2.719144424557674 0.0 -0.0 -0.0 26.540832621960803" Properties=species:S:1:pos:R:3 pbc="T T T"
Co      1.00335802       1.35958046      18.48803966 
Co      3.14194356       0.00005416      18.52036455 
Co      5.26856890       1.35964492      18.51048339 
Co     -0.03224180       0.00003420      16.74506769 
Co      2.39031189       1.35960005      16.64631398 
Co      4.70944425       0.00004205      16.65124458 
Co      7.04208176       1.35957688      16.77503206 
Co      9.43297632       0.00002512      16.70718140 
Co     11.76793755       1.35955866      16.70093296 
Pt      0.78495291       1.35957833      14.52654203 
Pt      3.13980160       0.00000703      14.52655002 
Pt      5.49464815       1.35957831      14.52655002 
Pt      7.84010002       0.00000589      14.61414904 
Pt     10.19855091       1.35957769      14.58766627 
Pt     12.56027061       0.00000389      14.57537680 
Pt      0.00000209       0.00000363      12.01439838 
Pt      2.35485455       1.35957832      12.01439838 
Pt      4.70969840       0.00000859      12.01439838 
Pt      7.06454799       1.35957831      12.01439098 
Pt      9.41939470       0.00000360      12.01439838 
Pt     11.77424717       1.35957829      12.01439838 
Co      0.78495291       1.35957833       9.87519261 
Co      3.13980441       0.00001190       9.87518219 
Co      5.49464253       1.35957831       9.87518219 
Co      7.84950072       0.00000030       9.87518219 
Co     10.20434553       1.35957829       9.87519261 
Co     12.55919702       0.00001186       9.87518219 
Co      7.06454799       1.35957831       8.00000505 
Co      9.41939366       0.00000178       8.00000000 
Co     11.77424926       1.35957828       8.00000000 
