30
Lattice="14.20667022076262 1.4732322028976341e-09 0.0 0.0 2.734074972245539 0.0 0.0 0.0 26.699054175" Properties=species:S:1:pos:R:3 pbc="T T T"
Co      1.09379118       1.36702066      18.71870857 
Co      3.12582865       0.00000564      18.67956723 
Co      5.13390115       1.36702936      18.71177409 
Pt     -0.02412655       0.00000481      16.69467393 
Pt      2.36847553       1.36704020      16.50500176 
Pt      4.77522362      -0.00000300      16.53834419 
Pt      7.13919919       1.36703905      16.65910214 
Pt      9.47849184       0.00000357      16.56743572 
Pt     11.83083198       1.36703906      16.56758573 
Co      0.78925946       1.36703749      14.41943250 
Co      3.15703783       0.00000000      14.41943250 
Co      5.52481620       1.36703749      14.41943250 
Co      7.86615447       0.00000494      14.46046265 
Co     10.26300954       1.36703636      14.44240892 
Co     12.66720197       0.00000532      14.44972472 
Pt      0.00000000       0.00000000      12.27962167 
Pt      2.36777837       1.36703749      12.27962167 
Pt      4.73555674       0.00000000      12.27962167 
Pt      7.10333511       1.36703749      12.27962167 
Pt      9.47111348       0.00000000      12.27962167 
Pt     11.83889185       1.36703749      12.27962167 
Co      0.78925946       1.36703749      10.13981084 
Co      3.15703783       0.00000000      10.13981084 
Co      5.52481620       1.36703749      10.13981084 
Co      7.89259457       0.00000000      10.13981084 
Co     10.26037294       1.36703749      10.13981084 
Co     12.62815131       0.00000000      10.13981084 
Pt      7.10333511       1.36703749       8.00000000 
Pt      9.47111348       0.00000000       8.00000000 
Pt     11.83889185       1.36703749       8.00000000 
