30
Lattice="14.009978016821876 -5.4898501777467253e-08 -3.4165007498643263e-06 0.0 2.6962219852996188 0.0 0.0 0.0 26.615059142005645" Properties=species:S:1:pos:R:3 pbc="T T T"
Cu      0.91747676       1.34810970      18.51813411 
Cu      3.11018215       0.00000206      18.58196232 
Cu      5.29604877       1.34811324      18.52701144 
Cu     -0.06169284       0.00000392      16.59892860 
Cu      2.35563758       1.34811096      16.51747906 
Cu      4.70605239       0.00000473      16.52191821 
Cu      7.03637681       1.34811364      16.62002993 
Cu      9.35180962      -0.00000015      16.55789158 
Cu     11.65828636       1.34811199      16.56488645 
Pd      0.77833310       1.34811049      14.33372542 
Pd      3.11332898      -0.00000001      14.33372542 
Pd      5.44832657       1.34811147      14.33372542 
Pd      7.77938866      -0.00000244      14.35594801 
Pd     10.11455805       1.34810929      14.34211457 
Pd     12.45551857      -0.00000383      14.34034718 
Cu     -0.00000000      -0.00000000      12.10479215 
Cu      2.33499758       1.34811147      12.10479215 
Cu      4.66999404      -0.00000002      12.10479609 
Cu      7.00499106       1.34811048      12.10479215 
Cu      9.33998695      -0.00000003      12.10479215 
Cu     11.67498454       1.34811144      12.10479215 
Cu      0.77833378       1.34810931      10.05239929 
Cu      3.11332761      -0.00000001      10.05239929 
Cu      5.44832726       1.34811265      10.05239929 
Cu      7.78332303      -0.00000003      10.05240142 
Cu     10.11832073       1.34810928      10.05239929 
Cu     12.45331456      -0.00000005      10.05239929 
Cu      7.00498957       1.34811306       7.99999829 
Cu      9.33998993      -0.00000003       7.99999829 
Cu     11.67498305       1.34810886       7.99999829 
