30
Lattice="14.452102040908736 5.660781304402611e-08 0.0 1.4802973661668753e-16 2.7813075677210812 0.0 0.0 0.0 27.385776064629372" Properties=species:S:1:pos:R:3 pbc="T T T"
Pt      0.88218086       1.39065830      19.25606258 
Pt      3.24437569       0.00000474      19.33009634 
Pt      5.59589028       1.39065875      19.30319901 
Cu     -0.14147744       0.00000319      17.26826857 
Cu      2.41471080       1.39065689      17.17439659 
Cu      4.87524675       0.00000425      17.18349733 
Cu      7.28919259       1.39065655      17.31312388 
Cu      9.64721133       0.00000232      17.23637628 
Cu     11.99412675       1.39065608      17.23257503 
Pt      0.80289329       1.39065615      15.05246594 
Pt      3.21157752       0.00000448      15.05247336 
Pt      5.62025932       1.39066037      15.05246594 
Pt      8.01157174       0.00000537      15.09604205 
Pt     10.42805096       1.39065826      15.06984036 
Pt     12.84490992       0.00000346      15.05838647 
Pt      0.00000017       0.00000447      12.60956050 
Pt      2.40868326       1.39065812      12.60956050 
Pt      4.81736603       0.00000449      12.60956050 
Pt      7.22604929       1.39065843      12.60956050 
Pt      9.63473223       0.00000451      12.60956050 
Pt     12.04341532       1.39065816      12.60956050 
Pt      0.80289329       1.39065615      10.16665506 
Pt      3.21157752       0.00000448      10.16664764 
Pt      5.62025932       1.39066037      10.16665506 
Pt      8.02894598       0.00000449      10.16665506 
Pt     10.43762535       1.39065618      10.16665506 
Pt     12.84630958       0.00000451      10.16664764 
Cu      7.22604723       1.39065486       8.00000000 
Cu      9.63473223       0.00000451       8.00000000 
Cu     12.04341326       1.39066173       8.00000000 
