60
Lattice="13.7851119827 0.0 0.0 0.0 5.6277484008 0.0 0.0 0.0 27.3721371895" Properties=species:S:1:pos:R:3 pbc="T T T"
Cu      4.42934360       0.00000019      19.14133695 
Pt      4.45040020       2.81387418      19.23536103 
Pt     11.39620584      -0.00000002      19.25407071 
Pt     11.38267592       2.81387415      19.25077335 
Pt      2.20341822       1.41718671      18.56819062 
Pt      2.20341829       4.21056162      18.56819062 
Pt      9.12487915       1.39058223      18.53896360 
Pt      9.12487919       4.23716620      18.53896368 
Pt     -0.00416443       0.00000003      17.87979677 
Cu     -0.03093436       2.81387419      17.86123677 
Pt      6.88782567       0.00000001      17.84679659 
Pt      6.88120360       2.81387420      17.88332668 
Pt      4.63227712       1.41517941      16.87903985 
Pt      4.63227718       4.21256902      16.87903983 
Pt     11.52108988       1.40638700      16.88742450 
Pt     11.52108978       4.22136142      16.88742435 
Pt      2.28183777      -0.00000002      16.13856058 
Pt      2.29018202       2.81387423      16.10479928 
Cu      9.18340888      -0.00000017      16.13420530 
Pt      9.16695380       2.81387418      16.11068227 
Pt      0.01212863       1.40329555      15.30970599 
Pt      0.01212868       4.22445290      15.30970601 
Pt      6.90595080       1.40487819      15.31303642 
Pt      6.90595076       4.22287017      15.31303649 
Pt      4.59503733      -0.00000000      14.49836411 
Cu      4.59503733       2.81387420      14.49836411 
Pt     11.48759332       0.00000000      14.49836411 
Pt     11.48759332       2.81387420      14.49836411 
Pt      2.29751866       1.40693710      13.68606859 
Pt      2.29751866       4.22081130      13.68606859 
Pt      9.19007466       1.40693710      13.68606859 
Pt      9.19007466       4.22081130      13.68606859 
Cu     -0.00000000       0.00000000      12.87377308 
Pt     -0.00000000       2.81387420      12.87377308 
Pt      6.89255599       0.00000000      12.87377308 
Pt      6.89255599       2.81387420      12.87377308 
Pt      4.59503733       1.40693710      12.06147757 
Pt      4.59503733       4.22081130      12.06147757 
Pt     11.48759332       1.40693710      12.06147757 
Pt     11.48759332       4.22081130      12.06147757 
Pt      2.29751866       0.00000000      11.24918205 
Pt      2.29751866       2.81387420      11.24918205 
Pt      9.19007466       0.00000000      11.24918205 
Cu      9.19007466       2.81387420      11.24918205 
Pt     -0.00000000       1.40693710      10.43688654 
Pt     -0.00000000       4.22081130      10.43688654 
Pt      6.89255599       1.40693710      10.43688654 
Pt      6.89255599       4.22081130      10.43688654 
Cu      4.59503733       0.00000000       9.62459103 
Pt      4.59503733       2.81387420       9.62459103 
Pt     11.48759332       0.00000000       9.62459103 
Pt     11.48759332       2.81387420       9.62459103 
Pt      2.29751866       1.40693710       8.81229551 
Pt      2.29751866       4.22081130       8.81229551 
Pt      9.19007466       1.40693710       8.81229551 
Pt      9.19007466       4.22081130       8.81229551 
Pt     -0.00000000       0.00000000       8.00000000 
Cu      0.00000000       2.81387420       8.00000000 
Pt      6.89255599       0.00000000       8.00000000 
Pt      6.89255599       2.81387420       8.00000000 
