30
Lattice="13.06902725046557 -8.581025107149752e-06 0.0 0.0 2.515135467102851 0.0 -0.0 -0.0 26.278171458136878" Properties=species:S:1:pos:R:3 pbc="T T T"
Ni      0.79751841       1.25757072      18.21117412 
Ni      2.90598122       0.00000210      18.23524780 
Ni      4.99931209       1.25756911      18.21340503 
Ni     -0.02937250       0.00000345      16.24900019 
Ni      2.17377700       1.25757027      16.19843910 
Ni      4.37834361       0.00000132      16.20135909 
Ni      6.55806881       1.25756931      16.26437216 
Ni      8.71318064       0.00000009      16.21890343 
Ni     10.88427974       1.25756515      16.22665613 
Fe      0.72605459       1.25756916      14.16872004 
Fe      2.90422668       0.00000295      14.16872004 
Fe      5.08239526       1.25756916      14.16872004 
Fe      7.25609114       0.00000221      14.19349197 
Fe      9.43567027       1.25757007      14.19001197 
Fe     11.61465062       0.00000036      14.18517515 
Ni      0.00000000       0.00000572      12.11853724 
Ni      2.17816378       1.25756916      12.11853724 
Ni      4.35634242      -0.00000286      12.11853724 
Ni      6.53451115       1.25756916      12.11852995 
Ni      8.71268483       0.00000572      12.11853724 
Ni     10.89084861       1.25756916      12.11853724 
Ni      0.72605459       1.25756916      10.05926862 
Ni      2.90422682       0.00000321      10.05926862 
Ni      5.08239496       1.25756916      10.05926862 
Ni      7.26056924      -0.00000034      10.05926862 
Ni      9.43873943       1.25756916      10.05926862 
Ni     11.61691166       0.00000321      10.05926862 
Ni      6.53451115       1.25756916       8.00000729 
Ni      8.71268483       0.00000572       8.00000000 
Ni     10.89084861       1.25756916       8.00000000 
