30
Lattice="14.474485181728564 -1.6727684755686467e-06 0.0 0.0 2.785615966052237 0.0 0.0 0.0 27.270346538720997" Properties=species:S:1:pos:R:3 pbc="T T T"
Fe      1.05587325       1.39281095      19.20379627 
Fe      3.23241723       0.00000029      19.14692438 
Fe      5.44495448       1.39280935      19.17386797 
Pt     -0.09255685       0.00000268      17.30377818 
Pt      2.38069575       1.39280839      17.06873894 
Pt      4.86679577      -0.00000036      17.08817455 
Pt      7.28843914       1.39280787      17.30777354 
Pt      9.63395315      -0.00000032      17.10574295 
Pt     12.00795706       1.39280806      17.11596182 
Pt      0.80413757       1.39280827      14.69146068 
Pt      3.21655256       0.00000169      14.69146068 
Pt      5.62896436       1.39280829      14.69146068 
Pt      8.02587564      -0.00000055      14.72337462 
Pt     10.45162291       1.39280804      14.67415500 
Pt     12.88504750      -0.00000083      14.71859674 
Pt      0.00000000       0.00000115      12.22514895 
Pt      2.41241270       1.39280828      12.22514895 
Pt      4.82482839      -0.00000056      12.22514895 
Pt      7.23724209       1.39280830      12.22514964 
Pt      9.64965679       0.00000118      12.22514895 
Pt     12.06206949       1.39280831      12.22514895 
Fe      0.80413757       1.39280827      10.11257482 
Fe      3.21654889      -0.00000468      10.11257482 
Fe      5.62897171       1.39280829      10.11257482 
Fe      8.04137729       0.00000529      10.11257482 
Fe     10.45379435       1.39280831      10.11257482 
Fe     12.86620568      -0.00000465      10.11257482 
Pt      7.23724209       1.39280830       8.00000000 
Pt      9.64965679       0.00000118       8.00000069 
Pt     12.06206949       1.39280831       8.00000069 
