30
Lattice="6.7198471524 0.0 0.0 -0.0 5.4867322243 0.0 0.0 0.0 27.0871821432" Properties=species:S:1:pos:R:3 pbc="T T T"
Ru      4.43271310       0.00000036      18.99299574 
Ir      4.38945792       2.74336676      18.96659061 
Ir      2.25124168       1.35958332      18.22888240 
Ir      2.25124249       4.12715174      18.22888413 
Ir      0.02389054       0.00000393      17.54832337 
Ru      0.00963125       2.74336790      17.56064705 
Ir      4.50304848       1.36609365      16.70664045 
Ir      4.50304859       4.12064060      16.70664006 
Ru      2.23253416      -0.00000211      15.90895971 
Ir      2.23126423       2.74336631      15.88296080 
Ir     -0.00434008       1.37541941      15.15816557 
Ir     -0.00433853       4.11131182      15.15816502 
Ir      4.47989810      -0.00000000      14.33553265 
Ru      4.47989810       2.74336611      14.33553265 
Ir      2.23994905       1.37168306      13.54359107 
Ir      2.23994905       4.11504917      13.54359107 
Ru     -0.00000000      -0.00000000      12.75164949 
Ir     -0.00000000       2.74336611      12.75164949 
Ir      4.47989810       1.37168306      11.95970791 
Ir      4.47989810       4.11504917      11.95970791 
Ir      2.23994905       0.00000000      11.16776633 
Ru      2.23994905       2.74336611      11.16776633 
Ir     -0.00000000       1.37168306      10.37582474 
Ir     -0.00000000       4.11504917      10.37582474 
Ru      4.47989810       0.00000000       9.58388316 
Ir      4.47989810       2.74336611       9.58388316 
Ir      2.23994905       1.37168306       8.79194158 
Ir      2.23994905       4.11504917       8.79194158 
Ir     -0.00000000       0.00000000       8.00000000 
Ru     -0.00000000       2.74336611       8.00000000 
