60
Lattice="13.3570062638 0.0 0.0 0.0 5.45297497295 0.0 0.0 0.0 27.0189679897" Properties=species:S:1:pos:R:3 pbc="T T T"
Ir      4.39769443      -0.00000083      18.90461857 
Rh      4.43262229       2.72648749      18.95712603 
Rh     11.09594537       0.00000003      18.95603953 
Rh     11.16130398       2.72648744      18.93789680 
Rh      2.22494045       1.36734484      18.21151810 
Rh      2.22494065       4.08563025      18.21151802 
Rh      8.91413445       1.36070754      18.20069846 
Rh      8.91413427       4.09226730      18.20069847 
Rh      0.00642436      -0.00000003      17.51220940 
Ir      0.02162456       2.72648752      17.50345052 
Rh      6.67418322      -0.00000010      17.53979631 
Rh      6.70429267       2.72648764      17.52962969 
Rh      4.46539621       1.36708293      16.64504528 
Rh      4.46539628       4.08589202      16.64504540 
Rh     11.14186371       1.36201813      16.64765265 
Rh     11.14186371       4.09095697      16.64765265 
Rh      2.21192092      -0.00000008      15.86583619 
Rh      2.21562673       2.72648754      15.86218677 
Ir      8.88621435       0.00000005      15.87695884 
Rh      8.89781524       2.72648754      15.85783579 
Rh     -0.00205941       1.36440292      15.10889968 
Rh     -0.00205925       4.08857206      15.10889962 
Rh      6.67935283       1.36238862      15.11104273 
Rh      6.67935278       4.09058633      15.11104267 
Rh      4.45233542       0.00000000      14.29655314 
Ir      4.45233542       2.72648749      14.29655314 
Rh     11.13083855       0.00000000      14.29655314 
Rh     11.13083855       2.72648749      14.29655314 
Rh      2.22616771       1.36324374      13.50948399 
Rh      2.22616771       4.08973123      13.50948399 
Rh      8.90467084       1.36324374      13.50948399 
Rh      8.90467084       4.08973123      13.50948399 
Ir      0.00000000      -0.00000000      12.72241485 
Rh      0.00000000       2.72648749      12.72241485 
Rh      6.67850313      -0.00000000      12.72241485 
Rh      6.67850313       2.72648749      12.72241485 
Rh      4.45233542       1.36324374      11.93534571 
Rh      4.45233542       4.08973123      11.93534571 
Rh     11.13083855       1.36324374      11.93534571 
Rh     11.13083855       4.08973123      11.93534571 
Rh      2.22616771       0.00000000      11.14827657 
Rh      2.22616771       2.72648749      11.14827657 
Rh      8.90467084       0.00000000      11.14827657 
Ir      8.90467084       2.72648749      11.14827657 
Rh     -0.00000000       1.36324374      10.36120743 
Rh     -0.00000000       4.08973123      10.36120743 
Rh      6.67850313       1.36324374      10.36120743 
Rh      6.67850313       4.08973123      10.36120743 
Ir      4.45233542       0.00000000       9.57413828 
Rh      4.45233542       2.72648749       9.57413828 
Rh     11.13083855       0.00000000       9.57413828 
Rh     11.13083855       2.72648749       9.57413828 
Rh      2.22616771       1.36324374       8.78706914 
Rh      2.22616771       4.08973123       8.78706914 
Rh      8.90467084       1.36324374       8.78706914 
Rh      8.90467084       4.08973123       8.78706914 
Rh      0.00000000      -0.00000000       8.00000000 
Ir     -0.00000000       2.72648749       8.00000000 
Rh      6.67850313       0.00000000       8.00000000 
Rh      6.67850313       2.72648749       8.00000000 
