30
Lattice="14.343972002324174 -1.2580994024347092e-09 0.0 0.0 2.7604987107903174 0.0 0.0 0.0 27.0006109075" Properties=species:S:1:pos:R:3 pbc="T T T"
Ru      0.90255579       1.38025142      18.93168115 
Ru      3.19174355       0.00000024      18.89815488 
Ru      5.47791577       1.38025033      18.93041241 
Ir     -0.05816977       0.00000081      16.83792794 
Ir      2.37316499       1.38025089      16.76822450 
Ir      4.82128703      -0.00000010      16.77370857 
Ir      7.21709073       1.38024975      16.82319562 
Ir      9.56585542      -0.00000096      16.77858460 
Ir     11.93559808       1.38024860      16.77379647 
Ru      0.79688733       1.38024936      14.60036654 
Ru      3.18754933       0.00000000      14.60036654 
Ru      5.57821133       1.38024936      14.60036654 
Ru      7.97100564       0.00000030      14.60742410 
Ru     10.35717003       1.38024925      14.60840055 
Ru     12.74896528       0.00000015      14.59313371 
Ir      0.00000000       0.00000000      12.40024436 
Ir      2.39066200       1.38024936      12.40024436 
Ir      4.78132400      -0.00000000      12.40024436 
Ir      7.17198600       1.38024935      12.40024436 
Ir      9.56264800      -0.00000000      12.40024436 
Ir     11.95331000       1.38024935      12.40024436 
Ru      0.79688733       1.38024936      10.20012218 
Ru      3.18754933       0.00000000      10.20012218 
Ru      5.57821133       1.38024936      10.20012218 
Ru      7.96887333       0.00000000      10.20012218 
Ru     10.35953533       1.38024936      10.20012218 
Ru     12.75019733       0.00000000      10.20012218 
Ir      7.17198600       1.38024935       8.00000000 
Ir      9.56264800      -0.00000000       8.00000000 
Ir     11.95331000       1.38024935       8.00000000 
