30
Lattice="14.342932398970419 7.892301599649332e-10 2.7326424056894894e-07 1.4802973661668753e-16 2.760298630671489 0.0 0.0 -0.0 27.015409359062527" Properties=species:S:1:pos:R:3 pbc="T T T"
Ru      0.90997931       1.38014973      18.92959083 
Ru      3.20158032       0.00000189      18.89594297 
Ru      5.48300459       1.38014901      18.91473217 
Ir     -0.07103128       0.00000001      16.85996983 
Ir      2.36675892       1.38014966      16.77012689 
Ir      4.82347573      -0.00000027      16.77055074 
Ir      7.22810661       1.38014928      16.84956824 
Ir      9.56539662       0.00000043      16.77368598 
Ir     11.93292901       1.38014917      16.76787414 
Ir      0.79682962       1.38014931      14.55294204 
Ir      3.18731834      -0.00000000      14.55294204 
Ir      5.57780708       1.38014932      14.55294204 
Ir      7.96918000       0.00000011      14.55811966 
Ir     10.35896625       1.38014818      14.55248691 
Ir     12.74664248       0.00000121      14.54304970 
Ru      0.00000007       0.00000000      12.35250992 
Ru      2.39048876       1.38014930      12.35250992 
Ru      4.78097750       0.00000000      12.35250974 
Ru      7.17146621       1.38014933      12.35250992 
Ru      9.56195497      -0.00000000      12.35250992 
Ru     11.95244366       1.38014929      12.35250992 
Ru      0.79682964       1.38014927      10.20043388 
Ru      3.18731830      -0.00000000      10.20043388 
Ru      5.57780710       1.38014936      10.20043388 
Ru      7.96829580      -0.00000000      10.20043405 
Ru     10.35878455       1.38014927      10.20043388 
Ru     12.74927320      -0.00000000      10.20043388 
Ir      7.17146624       1.38014928       8.00000023 
Ir      9.56195490      -0.00000000       8.00000023 
Ir     11.95244370       1.38014935       8.00000023 
