30
Lattice="6.9316771734 0.0 0.0 0.0 5.6596907122 0.0 0.0 0.0 27.4366838467" Properties=species:S:1:pos:R:3 pbc="T T T"
Pd      4.61830218      -0.00000175      19.38030050 
Pt      4.49160822       2.82984556      19.28894912 
Pt      2.29249513       1.40256134      18.60671725 
Pt      2.29249452       4.25712979      18.60671837 
Pt      0.05411994      -0.00000002      17.90906732 
Pd     -0.00179699       2.82984488      17.98533125 
Pt      4.67517679       1.40597444      16.94591980 
Pt      4.67517664       4.25371630      16.94591951 
Pd      2.31057805       0.00000002      16.16104010 
Pt      2.29189692       2.82984615      16.16106890 
Pt      0.01161127       1.41993325      15.36555317 
Pt      0.01161137       4.23975693      15.36555355 
Pt      4.62111812       0.00000000      14.53524791 
Pd      4.62111812       2.82984536      14.53524791 
Pt      2.31055906       1.41492268      13.71834192 
Pt      2.31055906       4.24476803      13.71834192 
Pd      0.00000000       0.00000000      12.90143593 
Pt      0.00000000       2.82984536      12.90143593 
Pt      4.62111812       1.41492268      12.08452995 
Pt      4.62111812       4.24476803      12.08452995 
Pt      2.31055906       0.00000000      11.26762396 
Pd      2.31055906       2.82984536      11.26762396 
Pt      0.00000000       1.41492268      10.45071797 
Pt      0.00000000       4.24476803      10.45071797 
Pd      4.62111812       0.00000000       9.63381198 
Pt      4.62111812       2.82984536       9.63381198 
Pt      2.31055906       1.41492268       8.81690599 
Pt      2.31055906       4.24476803       8.81690599 
Pt      0.00000000       0.00000000       8.00000000 
Pd      0.00000000       2.82984536       8.00000000 
