60
Lattice="13.4149894671 0.0 0.0 0.0 5.47664651655 0.0 0.0 0.0 27.066801692" Properties=species:S:1:pos:R:3 pbc="T T T"
Pt      4.45392040      -0.00000005      19.02323002 
Rh      4.45243065       2.73832318      18.98096767 
Rh     11.13716586      -0.00000020      18.96987357 
Rh     11.10521616       2.73832337      18.99210749 
Rh      2.24631274       1.36783667      18.24486403 
Rh      2.24631280       4.10880986      18.24486361 
Rh      8.94395925       1.37892032      18.25294825 
Rh      8.94395910       4.09772611      18.25294797 
Rh      0.02257799       0.00000009      17.54465904 
Pt      0.01267880       2.73832321      17.61974683 
Rh      6.73122183      -0.00000003      17.56383809 
Rh      6.72480896       2.73832317      17.53145219 
Rh      4.48493018       1.36878068      16.68491378 
Rh      4.48493056       4.10786568      16.68491388 
Rh     11.20218901       1.37342427      16.68944669 
Rh     11.20218912       4.10322215      16.68944652 
Rh      2.22449639       0.00000014      15.88990299 
Rh      2.20785561       2.73832332      15.90223856 
Pt      8.93427201      -0.00000009      15.89524906 
Rh      8.93277694       2.73832323      15.89806400 
Rh     -0.00342692       1.37083518      15.13761060 
Rh     -0.00342665       4.10581162      15.13761087 
Rh      6.70334312       1.36791620      15.13886929 
Rh      6.70334328       4.10873040      15.13886930 
Rh      4.47166316       0.00000000      14.32388668 
Pt      4.47166316       2.73832326      14.32388668 
Rh     11.17915789       0.00000000      14.32388668 
Rh     11.17915789       2.73832326      14.32388668 
Rh      2.23583158       1.36916163      13.53340085 
Rh      2.23583158       4.10748489      13.53340085 
Rh      8.94332631       1.36916163      13.53340085 
Rh      8.94332631       4.10748489      13.53340085 
Pt      0.00000000       0.00000000      12.74291501 
Rh     -0.00000000       2.73832326      12.74291501 
Rh      6.70749473       0.00000000      12.74291501 
Rh      6.70749473       2.73832326      12.74291501 
Rh      4.47166316       1.36916163      11.95242918 
Rh      4.47166316       4.10748489      11.95242918 
Rh     11.17915789       1.36916163      11.95242918 
Rh     11.17915789       4.10748489      11.95242918 
Rh      2.23583158      -0.00000000      11.16194334 
Rh      2.23583158       2.73832326      11.16194334 
Rh      8.94332631       0.00000000      11.16194334 
Pt      8.94332631       2.73832326      11.16194334 
Rh      0.00000000       1.36916163      10.37145751 
Rh      0.00000000       4.10748489      10.37145751 
Rh      6.70749473       1.36916163      10.37145751 
Rh      6.70749473       4.10748489      10.37145751 
Pt      4.47166316       0.00000000       9.58097167 
Rh      4.47166316       2.73832326       9.58097167 
Rh     11.17915789       0.00000000       9.58097167 
Rh     11.17915789       2.73832326       9.58097167 
Rh      2.23583158       1.36916163       8.79048584 
Rh      2.23583158       4.10748489       8.79048584 
Rh      8.94332631       1.36916163       8.79048584 
Rh      8.94332631       4.10748489       8.79048584 
Rh      0.00000000       0.00000000       8.00000000 
Pt     -0.00000000       2.73832326       8.00000000 
Rh      6.70749473      -0.00000000       8.00000000 
Rh      6.70749473       2.73832326       8.00000000 
