30
Lattice="14.308498721590832 -3.882650081574762e-09 0.0 1.4802973661668753e-16 2.753671925561837 0.0 0.0 -0.0 26.95102479190073" Properties=species:S:1:pos:R:3 pbc="T T T"
Ru      0.91667495       1.37683586      18.87558191 
Ru      3.17987459      -0.00000391      18.83659950 
Ru      5.44010643       1.37683387      18.86685530 
Rh     -0.03210938      -0.00000049      16.78096499 
Rh      2.37034534       1.37683486      16.70880008 
Rh      4.79800070      -0.00000140      16.70656538 
Rh      7.17522585       1.37683530      16.77358797 
Rh      9.53949105      -0.00000047      16.72093861 
Rh     11.91711038       1.37683477      16.72427580 
Ru      0.79491699       1.37683556      14.52453387 
Ru      3.17966613       0.00000000      14.52453387 
Ru      5.56441665       1.37683637      14.52453387 
Ru      7.95326814       0.00000009      14.54122360 
Ru     10.33256730       1.37683638      14.54210798 
Ru     12.71640036      -0.00000054      14.52923075 
Ru     -0.00000000      -0.00000000      12.36888966 
Ru      2.38475006       1.37683609      12.36888966 
Ru      4.76949981      -0.00000000      12.36888966 
Ru      7.15424972       1.37683583      12.36888966 
Ru      9.53899932      -0.00000000      12.36888966 
Ru     11.92374938       1.37683609      12.36888966 
Ru      0.79491699       1.37683556      10.21324546 
Ru      3.17966613       0.00000000      10.21324546 
Ru      5.56441665       1.37683637      10.21324546 
Ru      7.94916626      -0.00000000      10.21324655 
Ru     10.33391632       1.37683556      10.21324546 
Ru     12.71866545       0.00000000      10.21324546 
Rh      7.15424951       1.37683619       8.00000000 
Rh      9.53899974       0.00000000       8.00000000 
Rh     11.92374917       1.37683574       8.00000000 
